
OS:Version,
  {68442008-1a29-4fbf-9f52-731567541403}, !- Handle
  1.7.0;                                  !- Version Identifier

OS:Site,
  {2888366f-d7b3-4ffa-a15e-44fb9a226128}, !- Handle
  Denver-Stapleton CO,                    !- Name
  39.76,                                  !- Latitude {deg}
  -104.86,                                !- Longitude {deg}
  -7,                                     !- Time Zone {hr}
  1610.9999784,                           !- Elevation {m}
  Urban;                                  !- Terrain

OS:SimulationControl,
  {502c5025-58be-4a0c-8f22-38bed3439be7}, !- Handle
  Yes,                                    !- Do Zone Sizing Calculation
  No,                                     !- Do System Sizing Calculation
  Yes,                                    !- Do Plant Sizing Calculation
  No,                                     !- Run Simulation for Sizing Periods
  Yes,                                    !- Run Simulation for Weather File Run Periods
  0.05,                                   !- Loads Convergence Tolerance Value
  0.05,                                   !- Temperature Convergence Tolerance Value {deltaC}
  FullExterior,                           !- Solar Distribution
  50;                                     !- Maximum Number of Warmup Days

OS:Construction,
  {cdc147fe-6bad-4f19-8a91-5c6ad5a30814}, !- Handle
  Front-Glass,                            !- Name
  {0e4b6a01-cdfa-446a-b164-556b386c0cbf}, !- Surface Rendering Name
  {96c21f1c-7a77-4647-b085-ef786a661703}; !- Layer 1

OS:WindowMaterial:SimpleGlazingSystem,
  {96c21f1c-7a77-4647-b085-ef786a661703}, !- Handle
  Front-Win,                              !- Name
  6.59877319117468,                       !- U-Factor {W/m2-K}
  0.532733038999879;                      !- Solar Heat Gain Coefficient

OS:Schedule:Day,
  {65303885-0c75-4b7b-8ff0-0cde53af943b}, !- Handle
  Pool_HeaterWkEnd11,                     !- Name
  {719670cb-3e88-4d47-b04a-dd2ed71f555c}, !- Schedule Type Limits Name
  ,                                       !- Interpolate to Timestep
  1,                                      !- Hour 1
  0,                                      !- Minute 1
  0.0198172902805754,                     !- Value Until Time 1
  2,                                      !- Hour 2
  0,                                      !- Minute 2
  0.0198172902805754,                     !- Value Until Time 2
  3,                                      !- Hour 3
  0,                                      !- Minute 3
  0.0198172902805754,                     !- Value Until Time 3
  4,                                      !- Hour 4
  0,                                      !- Minute 4
  0.0264230537074339,                     !- Value Until Time 4
  5,                                      !- Hour 5
  0,                                      !- Minute 5
  0.0528461074148677,                     !- Value Until Time 5
  6,                                      !- Hour 6
  0,                                      !- Minute 6
  0.099086451402877,                      !- Value Until Time 6
  7,                                      !- Hour 7
  0,                                      !- Minute 7
  0.17174984909832,                       !- Value Until Time 7
  8,                                      !- Hour 8
  0,                                      !- Minute 8
  0.290653590781772,                      !- Value Until Time 8
  9,                                      !- Hour 9
  0,                                      !- Minute 9
  0.554884127856111,                      !- Value Until Time 9
  10,                                     !- Hour 10
  0,                                      !- Minute 10
  0.799297374649874,                      !- Value Until Time 10
  11,                                     !- Hour 11
  0,                                      !- Minute 11
  0.838931955211025,                      !- Value Until Time 11
  12,                                     !- Hour 12
  0,                                      !- Minute 12
  0.799297374649874,                      !- Value Until Time 12
  13,                                     !- Hour 13
  0,                                      !- Minute 13
  0.792691611223016,                      !- Value Until Time 13
  14,                                     !- Hour 14
  0,                                      !- Minute 14
  0.594518708417262,                      !- Value Until Time 14
  15,                                     !- Hour 15
  0,                                      !- Minute 15
  0.495432257014385,                      !- Value Until Time 15
  16,                                     !- Hour 16
  0,                                      !- Minute 16
  0.402951569038366,                      !- Value Until Time 16
  17,                                     !- Hour 17
  0,                                      !- Minute 17
  0.244413246793763,                      !- Value Until Time 17
  18,                                     !- Hour 18
  0,                                      !- Minute 18
  0.151932558817745,                      !- Value Until Time 18
  19,                                     !- Hour 19
  0,                                      !- Minute 19
  0.08587492454916,                       !- Value Until Time 19
  20,                                     !- Hour 20
  0,                                      !- Minute 20
  0.0528461074148677,                     !- Value Until Time 20
  21,                                     !- Hour 21
  0,                                      !- Minute 21
  0.0264230537074339,                     !- Value Until Time 21
  22,                                     !- Hour 22
  0,                                      !- Minute 22
  0.0198172902805754,                     !- Value Until Time 22
  23,                                     !- Hour 23
  0,                                      !- Minute 23
  0.0198172902805754,                     !- Value Until Time 23
  24,                                     !- Hour 24
  0,                                      !- Minute 24
  0.0198172902805754;                     !- Value Until Time 24

OS:ScheduleTypeLimits,
  {719670cb-3e88-4d47-b04a-dd2ed71f555c}, !- Handle
  Fraction,                               !- Name
  0,                                      !- Lower Limit Value {BasedOnField A4}
  1,                                      !- Upper Limit Value {BasedOnField A4}
  Continuous;                             !- Numeric Type

OS:Construction,
  {9c8d620e-b4ed-4fb4-8a87-f477240e63e7}, !- Handle
  LivingFurniture,                        !- Name
  {788f8f55-3957-420e-ba21-39fb864052ef}, !- Surface Rendering Name
  {bd43da44-09b5-45e3-9d86-f13eaee8cd92}; !- Layer 1

OS:Material,
  {bd43da44-09b5-45e3-9d86-f13eaee8cd92}, !- Handle
  LivingFurnitureMaterial,                !- Name
  Rough,                                  !- Roughness
  0.1524,                                 !- Thickness {m}
  0.1154577,                              !- Conductivity {W/m-K}
  640.8,                                  !- Density {kg/m3}
  1214.23,                                !- Specific Heat {J/kg-K}
  0.9,                                    !- Thermal Absorptance
  0.6,                                    !- Solar Absorptance
  0.1;                                    !- Visible Absorptance

OS:Schedule:Day,
  {df02855a-b59a-43b6-82a7-15238762482a}, !- Handle
  Gas_FireplaceWkEnd10,                   !- Name
  {719670cb-3e88-4d47-b04a-dd2ed71f555c}, !- Schedule Type Limits Name
  ,                                       !- Interpolate to Timestep
  1,                                      !- Hour 1
  0,                                      !- Minute 1
  0.430983714920978,                      !- Value Until Time 1
  2,                                      !- Hour 2
  0,                                      !- Minute 2
  0.225286941890511,                      !- Value Until Time 2
  3,                                      !- Hour 3
  0,                                      !- Minute 3
  0.186106604170422,                      !- Value Until Time 3
  4,                                      !- Hour 4
  0,                                      !- Minute 4
  0.146926266450333,                      !- Value Until Time 4
  5,                                      !- Hour 5
  0,                                      !- Minute 5
  0.156721350880356,                      !- Value Until Time 5
  6,                                      !- Hour 6
  0,                                      !- Minute 6
  0.1763115197404,                        !- Value Until Time 6
  7,                                      !- Hour 7
  0,                                      !- Minute 7
  0.254672195180578,                      !- Value Until Time 7
  8,                                      !- Hour 8
  0,                                      !- Minute 8
  0.323237786190734,                      !- Value Until Time 8
  9,                                      !- Hour 9
  0,                                      !- Minute 9
  0.323237786190734,                      !- Value Until Time 9
  10,                                     !- Hour 10
  0,                                      !- Minute 10
  0.313442701760711,                      !- Value Until Time 10
  11,                                     !- Hour 11
  0,                                      !- Minute 11
  0.323237786190734,                      !- Value Until Time 11
  12,                                     !- Hour 12
  0,                                      !- Minute 12
  0.323237786190734,                      !- Value Until Time 12
  13,                                     !- Hour 13
  0,                                      !- Minute 13
  0.313442701760711,                      !- Value Until Time 13
  14,                                     !- Hour 14
  0,                                      !- Minute 14
  0.313442701760711,                      !- Value Until Time 14
  15,                                     !- Hour 15
  0,                                      !- Minute 15
  0.313442701760711,                      !- Value Until Time 15
  16,                                     !- Hour 16
  0,                                      !- Minute 16
  0.323237786190734,                      !- Value Until Time 16
  17,                                     !- Hour 17
  0,                                      !- Minute 17
  0.440778799351001,                      !- Value Until Time 17
  18,                                     !- Hour 18
  0,                                      !- Minute 18
  0.558319812511267,                      !- Value Until Time 18
  19,                                     !- Hour 19
  0,                                      !- Minute 19
  0.646475572381467,                      !- Value Until Time 19
  20,                                     !- Hour 20
  0,                                      !- Minute 20
  0.74442641668169,                       !- Value Until Time 20
  21,                                     !- Hour 21
  0,                                      !- Minute 21
  0.793401838831801,                      !- Value Until Time 21
  22,                                     !- Hour 22
  0,                                      !- Minute 22
  0.842377260981912,                      !- Value Until Time 22
  23,                                     !- Hour 23
  0,                                      !- Minute 23
  0.734631332251668,                      !- Value Until Time 23
  24,                                     !- Hour 24
  0,                                      !- Minute 24
  0.636680487951445;                      !- Value Until Time 24

OS:Schedule:Day,
  {8d8d93cb-4d62-48bc-880f-fccb215c20b5}, !- Handle
  WindowShadingSchedule04d,               !- Name
  {719670cb-3e88-4d47-b04a-dd2ed71f555c}, !- Schedule Type Limits Name
  ,                                       !- Interpolate to Timestep
  1,                                      !- Hour 1
  0,                                      !- Minute 1
  0,                                      !- Value Until Time 1
  2,                                      !- Hour 2
  0,                                      !- Minute 2
  0,                                      !- Value Until Time 2
  3,                                      !- Hour 3
  0,                                      !- Minute 3
  0,                                      !- Value Until Time 3
  4,                                      !- Hour 4
  0,                                      !- Minute 4
  0,                                      !- Value Until Time 4
  5,                                      !- Hour 5
  0,                                      !- Minute 5
  0,                                      !- Value Until Time 5
  6,                                      !- Hour 6
  0,                                      !- Minute 6
  0,                                      !- Value Until Time 6
  7,                                      !- Hour 7
  0,                                      !- Minute 7
  0,                                      !- Value Until Time 7
  8,                                      !- Hour 8
  0,                                      !- Minute 8
  0,                                      !- Value Until Time 8
  9,                                      !- Hour 9
  0,                                      !- Minute 9
  0,                                      !- Value Until Time 9
  10,                                     !- Hour 10
  0,                                      !- Minute 10
  0,                                      !- Value Until Time 10
  11,                                     !- Hour 11
  0,                                      !- Minute 11
  0,                                      !- Value Until Time 11
  12,                                     !- Hour 12
  0,                                      !- Minute 12
  0,                                      !- Value Until Time 12
  13,                                     !- Hour 13
  0,                                      !- Minute 13
  0,                                      !- Value Until Time 13
  14,                                     !- Hour 14
  0,                                      !- Minute 14
  0,                                      !- Value Until Time 14
  15,                                     !- Hour 15
  0,                                      !- Minute 15
  0,                                      !- Value Until Time 15
  16,                                     !- Hour 16
  0,                                      !- Minute 16
  0,                                      !- Value Until Time 16
  17,                                     !- Hour 17
  0,                                      !- Minute 17
  0,                                      !- Value Until Time 17
  18,                                     !- Hour 18
  0,                                      !- Minute 18
  0,                                      !- Value Until Time 18
  19,                                     !- Hour 19
  0,                                      !- Minute 19
  0,                                      !- Value Until Time 19
  20,                                     !- Hour 20
  0,                                      !- Minute 20
  0,                                      !- Value Until Time 20
  21,                                     !- Hour 21
  0,                                      !- Minute 21
  0,                                      !- Value Until Time 21
  22,                                     !- Hour 22
  0,                                      !- Minute 22
  0,                                      !- Value Until Time 22
  23,                                     !- Hour 23
  0,                                      !- Minute 23
  0,                                      !- Value Until Time 23
  24,                                     !- Hour 24
  0,                                      !- Minute 24
  0;                                      !- Value Until Time 24

OS:Schedule:Day,
  {dc99bee9-f525-4b7a-abb5-27675770bedd}, !- Handle
  Pool_PumpWkDay06,                       !- Name
  {719670cb-3e88-4d47-b04a-dd2ed71f555c}, !- Schedule Type Limits Name
  ,                                       !- Interpolate to Timestep
  1,                                      !- Hour 1
  0,                                      !- Minute 1
  0.0180675090032351,                     !- Value Until Time 1
  2,                                      !- Hour 2
  0,                                      !- Minute 2
  0.0180675090032351,                     !- Value Until Time 2
  3,                                      !- Hour 3
  0,                                      !- Minute 3
  0.0180675090032351,                     !- Value Until Time 3
  4,                                      !- Hour 4
  0,                                      !- Minute 4
  0.0240900120043134,                     !- Value Until Time 4
  5,                                      !- Hour 5
  0,                                      !- Minute 5
  0.0481800240086268,                     !- Value Until Time 5
  6,                                      !- Hour 6
  0,                                      !- Minute 6
  0.0903375450161753,                     !- Value Until Time 6
  7,                                      !- Hour 7
  0,                                      !- Minute 7
  0.156585078028037,                      !- Value Until Time 7
  8,                                      !- Hour 8
  0,                                      !- Minute 8
  0.264990132047447,                      !- Value Until Time 8
  9,                                      !- Hour 9
  0,                                      !- Minute 9
  0.505890252090582,                      !- Value Until Time 9
  10,                                     !- Hour 10
  0,                                      !- Minute 10
  0.728722863130481,                      !- Value Until Time 10
  11,                                     !- Hour 11
  0,                                      !- Minute 11
  0.764857881136951,                      !- Value Until Time 11
  12,                                     !- Hour 12
  0,                                      !- Minute 12
  0.728722863130481,                      !- Value Until Time 12
  13,                                     !- Hour 13
  0,                                      !- Minute 13
  0.722700360129402,                      !- Value Until Time 13
  14,                                     !- Hour 14
  0,                                      !- Minute 14
  0.542025270097052,                      !- Value Until Time 14
  15,                                     !- Hour 15
  0,                                      !- Minute 15
  0.451687725080876,                      !- Value Until Time 15
  16,                                     !- Hour 16
  0,                                      !- Minute 16
  0.36737268306578,                       !- Value Until Time 16
  17,                                     !- Hour 17
  0,                                      !- Minute 17
  0.222832611039899,                      !- Value Until Time 17
  18,                                     !- Hour 18
  0,                                      !- Minute 18
  0.138517569024802,                      !- Value Until Time 18
  19,                                     !- Hour 19
  0,                                      !- Minute 19
  0.0782925390140186,                     !- Value Until Time 19
  20,                                     !- Hour 20
  0,                                      !- Minute 20
  0.0481800240086268,                     !- Value Until Time 20
  21,                                     !- Hour 21
  0,                                      !- Minute 21
  0.0240900120043134,                     !- Value Until Time 21
  22,                                     !- Hour 22
  0,                                      !- Minute 22
  0.0180675090032351,                     !- Value Until Time 22
  23,                                     !- Hour 23
  0,                                      !- Minute 23
  0.0180675090032351,                     !- Value Until Time 23
  24,                                     !- Hour 24
  0,                                      !- Minute 24
  0.0180675090032351;                     !- Value Until Time 24

OS:Schedule:Day,
  {edfabefb-cab2-4263-92c2-8d8805834390}, !- Handle
  FreezerWkDay01,                         !- Name
  {719670cb-3e88-4d47-b04a-dd2ed71f555c}, !- Schedule Type Limits Name
  ,                                       !- Interpolate to Timestep
  1,                                      !- Hour 1
  0,                                      !- Minute 1
  0.694260119442601,                      !- Value Until Time 1
  2,                                      !- Hour 2
  0,                                      !- Minute 2
  0.694260119442601,                      !- Value Until Time 2
  3,                                      !- Hour 3
  0,                                      !- Minute 3
  0.694260119442601,                      !- Value Until Time 3
  4,                                      !- Hour 4
  0,                                      !- Minute 4
  0.694260119442601,                      !- Value Until Time 4
  5,                                      !- Hour 5
  0,                                      !- Minute 5
  0.694260119442601,                      !- Value Until Time 5
  6,                                      !- Hour 6
  0,                                      !- Minute 6
  0.694260119442601,                      !- Value Until Time 6
  7,                                      !- Hour 7
  0,                                      !- Minute 7
  0.694260119442601,                      !- Value Until Time 7
  8,                                      !- Hour 8
  0,                                      !- Minute 8
  0.711616622428666,                      !- Value Until Time 8
  9,                                      !- Hour 9
  0,                                      !- Minute 9
  0.711616622428666,                      !- Value Until Time 9
  10,                                     !- Hour 10
  0,                                      !- Minute 10
  0.728973125414731,                      !- Value Until Time 10
  11,                                     !- Hour 11
  0,                                      !- Minute 11
  0.728973125414731,                      !- Value Until Time 11
  12,                                     !- Hour 12
  0,                                      !- Minute 12
  0.728973125414731,                      !- Value Until Time 12
  13,                                     !- Hour 13
  0,                                      !- Minute 13
  0.728973125414731,                      !- Value Until Time 13
  14,                                     !- Hour 14
  0,                                      !- Minute 14
  0.746329628400796,                      !- Value Until Time 14
  15,                                     !- Hour 15
  0,                                      !- Minute 15
  0.746329628400796,                      !- Value Until Time 15
  16,                                     !- Hour 16
  0,                                      !- Minute 16
  0.763686131386861,                      !- Value Until Time 16
  17,                                     !- Hour 17
  0,                                      !- Minute 17
  0.746329628400796,                      !- Value Until Time 17
  18,                                     !- Hour 18
  0,                                      !- Minute 18
  0.746329628400796,                      !- Value Until Time 18
  19,                                     !- Hour 19
  0,                                      !- Minute 19
  0.746329628400796,                      !- Value Until Time 19
  20,                                     !- Hour 20
  0,                                      !- Minute 20
  0.728973125414731,                      !- Value Until Time 20
  21,                                     !- Hour 21
  0,                                      !- Minute 21
  0.728973125414731,                      !- Value Until Time 21
  22,                                     !- Hour 22
  0,                                      !- Minute 22
  0.711616622428666,                      !- Value Until Time 22
  23,                                     !- Hour 23
  0,                                      !- Minute 23
  0.711616622428666,                      !- Value Until Time 23
  24,                                     !- Hour 24
  0,                                      !- Minute 24
  0.711616622428666;                      !- Value Until Time 24

OS:Schedule:Day,
  {11fcfe73-379c-43df-8c1d-44b8c8e002c4}, !- Handle
  NatVentHtgSsnTempWkEnd,                 !- Name
  {38a1f7b6-6388-46d3-aa19-85acb8de02f2}, !- Schedule Type Limits Name
  ,                                       !- Interpolate to Timestep
  1,                                      !- Hour 1
  0,                                      !- Minute 1
  23.8888888888889,                       !- Value Until Time 1
  2,                                      !- Hour 2
  0,                                      !- Minute 2
  23.8888888888889,                       !- Value Until Time 2
  3,                                      !- Hour 3
  0,                                      !- Minute 3
  23.8888888888889,                       !- Value Until Time 3
  4,                                      !- Hour 4
  0,                                      !- Minute 4
  23.8888888888889,                       !- Value Until Time 4
  5,                                      !- Hour 5
  0,                                      !- Minute 5
  23.8888888888889,                       !- Value Until Time 5
  6,                                      !- Hour 6
  0,                                      !- Minute 6
  23.8888888888889,                       !- Value Until Time 6
  7,                                      !- Hour 7
  0,                                      !- Minute 7
  23.8888888888889,                       !- Value Until Time 7
  8,                                      !- Hour 8
  0,                                      !- Minute 8
  23.8888888888889,                       !- Value Until Time 8
  9,                                      !- Hour 9
  0,                                      !- Minute 9
  23.8888888888889,                       !- Value Until Time 9
  10,                                     !- Hour 10
  0,                                      !- Minute 10
  23.8888888888889,                       !- Value Until Time 10
  11,                                     !- Hour 11
  0,                                      !- Minute 11
  23.8888888888889,                       !- Value Until Time 11
  12,                                     !- Hour 12
  0,                                      !- Minute 12
  23.8888888888889,                       !- Value Until Time 12
  13,                                     !- Hour 13
  0,                                      !- Minute 13
  23.8888888888889,                       !- Value Until Time 13
  14,                                     !- Hour 14
  0,                                      !- Minute 14
  23.8888888888889,                       !- Value Until Time 14
  15,                                     !- Hour 15
  0,                                      !- Minute 15
  23.8888888888889,                       !- Value Until Time 15
  16,                                     !- Hour 16
  0,                                      !- Minute 16
  23.8888888888889,                       !- Value Until Time 16
  17,                                     !- Hour 17
  0,                                      !- Minute 17
  23.8888888888889,                       !- Value Until Time 17
  18,                                     !- Hour 18
  0,                                      !- Minute 18
  23.8888888888889,                       !- Value Until Time 18
  19,                                     !- Hour 19
  0,                                      !- Minute 19
  23.8888888888889,                       !- Value Until Time 19
  20,                                     !- Hour 20
  0,                                      !- Minute 20
  23.8888888888889,                       !- Value Until Time 20
  21,                                     !- Hour 21
  0,                                      !- Minute 21
  23.8888888888889,                       !- Value Until Time 21
  22,                                     !- Hour 22
  0,                                      !- Minute 22
  23.8888888888889,                       !- Value Until Time 22
  23,                                     !- Hour 23
  0,                                      !- Minute 23
  23.8888888888889,                       !- Value Until Time 23
  24,                                     !- Hour 24
  0,                                      !- Minute 24
  23.8888888888889;                       !- Value Until Time 24

OS:ScheduleTypeLimits,
  {38a1f7b6-6388-46d3-aa19-85acb8de02f2}, !- Handle
  Temperature,                            !- Name
  -60,                                    !- Lower Limit Value {BasedOnField A4}
  200,                                    !- Upper Limit Value {BasedOnField A4}
  Continuous,                             !- Numeric Type
  Temperature;                            !- Unit Type

OS:Schedule:Day,
  {aab12841-1465-4227-b0ee-a99ff4972b5b}, !- Handle
  HeatingSetPointDesignDay,               !- Name
  {38a1f7b6-6388-46d3-aa19-85acb8de02f2}, !- Schedule Type Limits Name