
OS:Version,
  {098b9d86-e2bc-40b0-99a7-6858ceb45dc3}, !- Handle
  1.7.0;                                  !- Version Identifier

OS:Rendering:Color,
  {d1e86687-6885-4070-81da-3a576f17ff5c}, !- Handle
  Rendering Color 1,                      !- Name
  230,                                    !- Rendering Red Value
  157,                                    !- Rendering Green Value
  120;                                    !- Rendering Blue Value

OS:Lights:Definition,
  {2be0344f-10c3-4095-86fd-81db27963ad5}, !- Handle
  189.1-2009 - Office - BreakRoom - CZ1-3 Lights Definition, !- Name
  Watts/Area,                             !- Design Level Calculation Method
  ,                                       !- Lighting Level {W}
  11.6250232500465,                       !- Watts per Space Floor Area {W/m2}
  ;                                       !- Watts per Person {W/person}

OS:ScheduleTypeLimits,
  {af9d9c36-2d5f-4871-8dda-ff179c7ff3db}, ! Handle
  Fraction,                               ! Name
  0,                                      ! Lower Limit Value
  1,                                      ! Upper Limit Value
  CONTINUOUS;                             ! Numeric Type

OS:DesignSpecification:OutdoorAir,
  {67f2822d-9200-410d-bad4-ca1adb4cbb77}, !- Handle
  189.1-2009 - Office - BreakRoom - CZ1-3 Ventilation, !- Name
  Sum,                                    !- Outdoor Air Method
  0.007079211648,                         !- Outdoor Air Flow per Person {m3/s-person}
  ,                                       !- Outdoor Air Flow per Floor Area {m3/s-m2}
  ,                                       !- Outdoor Air Flow Rate {m3/s}
  ,                                       !- Outdoor Air Flow Air Changes per Hour {1/hr}
  ;                                       !- Outdoor Air Flow Rate Fraction Schedule Name

OS:People:Definition,
  {c42e1fab-f69a-49d5-a2c9-f14f1259af26}, !- Handle
  189.1-2009 - Office - BreakRoom - CZ1-3 People Definition, !- Name
  People/Area,                            !- Number of People Calculation Method
  ,                                       !- Number of People {people}
  0.538195520835486,                      !- People per Space Floor Area {person/m2}
  ,                                       !- Space Floor Area per Person {m2/person}
  0.3;                                    !- Fraction Radiant

OS:ScheduleTypeLimits,
  {65bf6a03-1758-4903-8383-db583a09d8f8}, !- Handle
  ActivityLevel,                          !- Name
  0,                                      !- Lower Limit Value {BasedOnField A4}
  ,                                       !- Upper Limit Value {BasedOnField A4}
  Continuous,                             !- Numeric Type
  ActivityLevel;                          !- Unit Type

OS:ElectricEquipment:Definition,
  {67250caf-92b5-4b98-bf98-90620f2922e7}, !- Handle
  189.1-2009 - Office - BreakRoom - CZ1-3 Electric Equipment Definition, !- Name
  Watts/Area,                             !- Design Level Calculation Method
  ,                                       !- Design Level {W}
  48.0070404585254,                       !- Watts per Space Floor Area {W/m2}
  ;                                       !- Watts per Person {W/person}

OS:ThermostatSetpoint:DualSetpoint,
  {57716514-0d5c-4f76-8108-73a8ef55c74a}, !- Handle
  189.1-2009 - Office - BreakRoom - CZ1-3 Thermostat, !- Name
  ,                                       !- Heating Setpoint Temperature Schedule Name
  ;                                       !- Cooling Setpoint Temperature Schedule Name

OS:ScheduleTypeLimits,
  {12c61fd1-4fe2-4b95-9432-26b57b327856}, !- Handle
  Temperature 36,                         !- Name
  ,                                       !- Lower Limit Value {BasedOnField A4}
  ,                                       !- Upper Limit Value {BasedOnField A4}
  Continuous,                             !- Numeric Type
  Temperature;                            !- Unit Type

OS:ScheduleTypeLimits,
  {7e87320c-a0b8-49c9-bbc8-d0b2f472ac54}, !- Handle
  Temperature 37,                         !- Name
  ,                                       !- Lower Limit Value {BasedOnField A4}
  ,                                       !- Upper Limit Value {BasedOnField A4}
  Continuous,                             !- Numeric Type
  Temperature;                            !- Unit Type

OS:Rendering:Color,
  {a57916a4-2d44-41b9-a1e1-917f01e6e980}, !- Handle
  Rendering Color 2,                      !- Name
  120,                                    !- Rendering Red Value
  230,                                    !- Rendering Green Value
  199;                                    !- Rendering Blue Value

OS:Lights:Definition,
  {06799bf2-e498-4941-a66b-f78cb208dc67}, !- Handle
  189.1-2009 - Office - ClosedOffice - CZ1-3 Lights Definition, !- Name
  Watts/Area,                             !- Design Level Calculation Method
  ,                                       !- Lighting Level {W}
  10.6562713125426,                       !- Watts per Space Floor Area {W/m2}
  ;                                       !- Watts per Person {W/person}

OS:DesignSpecification:OutdoorAir,
  {f46c6550-abd3-4dc9-b2fd-3521e6458afe}, !- Handle
  189.1-2009 - Office - ClosedOffice - CZ1-3 Ventilation, !- Name
  Sum,                                    !- Outdoor Air Method
  0.009438948864,                         !- Outdoor Air Flow per Person {m3/s-person}
  ,                                       !- Outdoor Air Flow per Floor Area {m3/s-m2}
  ,                                       !- Outdoor Air Flow Rate {m3/s}
  ,                                       !- Outdoor Air Flow Air Changes per Hour {1/hr}
  ;                                       !- Outdoor Air Flow Rate Fraction Schedule Name

OS:People:Definition,
  {6e7c5923-7c0d-48b7-9a3f-216e3e766b71}, !- Handle
  189.1-2009 - Office - ClosedOffice - CZ1-3 People Definition, !- Name
  People/Area,                            !- Number of People Calculation Method
  ,                                       !- Number of People {people}
  0.0511285744793712,                     !- People per Space Floor Area {person/m2}
  ,                                       !- Space Floor Area per Person {m2/person}
  0.3;                                    !- Fraction Radiant

OS:ElectricEquipment:Definition,
  {5e1004b6-95f1-43ca-b770-059ae9545327}, !- Handle
  189.1-2009 - Office - ClosedOffice - CZ1-3 Electric Equipment Definition, !- Name
  Watts/Area,                             !- Design Level Calculation Method
  ,                                       !- Design Level {W}
  6.88890266669422,                       !- Watts per Space Floor Area {W/m2}
  ;                                       !- Watts per Person {W/person}

OS:ThermostatSetpoint:DualSetpoint,
  {b27de14f-0cdf-4395-80f3-859d49e9b403}, !- Handle
  189.1-2009 - Office - ClosedOffice - CZ1-3 Thermostat, !- Name
  ,                                       !- Heating Setpoint Temperature Schedule Name
  ;                                       !- Cooling Setpoint Temperature Schedule Name

OS:Rendering:Color,
  {ec05571d-f09e-46c5-830e-02e7c83716e2}, !- Handle
  Rendering Color 3,                      !- Name
  230,                                    !- Rendering Red Value
  196,                                    !- Rendering Green Value
  120;                                    !- Rendering Blue Value

OS:Lights:Definition,
  {7c05f735-2072-4b8c-946d-b7cd8119ee11}, !- Handle
  189.1-2009 - Office - Conference - CZ1-3 Lights Definition, !- Name
  Watts/Area,                             !- Design Level Calculation Method
  ,                                       !- Lighting Level {W}
  12.5937751875504,                       !- Watts per Space Floor Area {W/m2}
  ;                                       !- Watts per Person {W/person}

OS:DesignSpecification:OutdoorAir,
  {a1ac4f23-b7fd-439b-9144-9025bbf81b99}, !- Handle
  189.1-2009 - Office - Conference - CZ1-3 Ventilation, !- Name
  Sum,                                    !- Outdoor Air Method
  0.009438948864,                         !- Outdoor Air Flow per Person {m3/s-person}
  ,                                       !- Outdoor Air Flow per Floor Area {m3/s-m2}
  ,                                       !- Outdoor Air Flow Rate {m3/s}
  ,                                       !- Outdoor Air Flow Air Changes per Hour {1/hr}
  ;                                       !- Outdoor Air Flow Rate Fraction Schedule Name

OS:People:Definition,
  {1e057bcd-e909-4141-b7ac-844fc9c736b0}, !- Handle
  189.1-2009 - Office - Conference - CZ1-3 People Definition, !- Name
  People/Area,                            !- Number of People Calculation Method
  ,                                       !- Number of People {people}
  0.538195520835486,                      !- People per Space Floor Area {person/m2}
  ,                                       !- Space Floor Area per Person {m2/person}
  0.3;                                    !- Fraction Radiant

OS:ElectricEquipment:Definition,
  {24acb6cb-ad2a-44b2-b01a-335e7395daae}, !- Handle
  189.1-2009 - Office - Conference - CZ1-3 Electric Equipment Definition, !- Name
  Watts/Area,                             !- Design Level Calculation Method
  ,                                       !- Design Level {W}
  3.9826468541826,                        !- Watts per Space Floor Area {W/m2}
  ;                                       !- Watts per Person {W/person}

OS:ThermostatSetpoint:DualSetpoint,
  {9c5a236d-b8fa-4e61-a6d6-5ef82442b61b}, !- Handle
  189.1-2009 - Office - Conference - CZ1-3 Thermostat, !- Name
  ,                                       !- Heating Setpoint Temperature Schedule Name
  ;                                       !- Cooling Setpoint Temperature Schedule Name

OS:Rendering:Color,
  {9637cafc-bc8f-40aa-8756-39cbbba37ac4}, !- Handle
  Rendering Color 4,                      !- Name
  169,                                    !- Rendering Red Value
  31,                                     !- Rendering Green Value
  31;                                     !- Rendering Blue Value

OS:Lights:Definition,
  {61d53d0d-2d54-4a69-926d-aeb7fd47d282}, !- Handle
  189.1-2009 - Office - Corridor - CZ1-3 Lights Definition, !- Name
  Watts/Area,                             !- Design Level Calculation Method
  ,                                       !- Lighting Level {W}
  4.84375968751938,                       !- Watts per Space Floor Area {W/m2}
  ;                                       !- Watts per Person {W/person}

OS:DesignSpecification:OutdoorAir,
  {43c2eb8f-ca41-472d-a661-37d29e1aa470}, !- Handle
  189.1-2009 - Office - Corridor - CZ1-3 Ventilation, !- Name
  Sum,                                    !- Outdoor Air Method
  ,                                       !- Outdoor Air Flow per Person {m3/s-person}
  0.000254,                               !- Outdoor Air Flow per Floor Area {m3/s-m2}
  ,                                       !- Outdoor Air Flow Rate {m3/s}
  ,                                       !- Outdoor Air Flow Air Changes per Hour {1/hr}
  ;                                       !- Outdoor Air Flow Rate Fraction Schedule Name

OS:People:Definition,
  {15f0501f-443a-40f6-846f-5720de6f91e8}, !- Handle
  189.1-2009 - Office - Corridor - CZ1-3 People Definition, !- Name
  People/Area,                            !- Number of People Calculation Method
  ,                                       !- Number of People {people}
  0.0107639104167097,                     !- People per Space Floor Area {person/m2}
  ,                                       !- Space Floor Area per Person {m2/person}
  0.3;                                    !- Fraction Radiant

OS:ElectricEquipment:Definition,
  {3e9e4b9d-78ea-42f5-87ca-c1ec4f4990f2}, !- Handle
  189.1-2009 - Office - Corridor - CZ1-3 Electric Equipment Definition, !- Name
  Watts/Area,                             !- Design Level Calculation Method
  ,                                       !- Design Level {W}
  1.72222566667356,                       !- Watts per Space Floor Area {W/m2}
  ;                                       !- Watts per Person {W/person}

OS:ThermostatSetpoint:DualSetpoint,
  {52549264-a360-4f7a-971d-ec4f2499546a}, !- Handle
  189.1-2009 - Office - Corridor - CZ1-3 Thermostat, !- Name
  ,                                       !- Heating Setpoint Temperature Schedule Name
  ;                                       !- Cooling Setpoint Temperature Schedule Name

OS:Rendering:Color,
  {8a8c0cb1-8336-469c-bca4-e17997f803bb}, !- Handle
  Rendering Color 5,                      !- Name
  41,                                     !- Rendering Red Value
  31,                                     !- Rendering Green Value
  169;                                    !- Rendering Blue Value

OS:Lights:Definition,
  {db4f58dd-4414-4c10-8481-b5fdd7610a22}, !- Handle
  189.1-2009 - Office - Elec/MechRoom - CZ1-3 Lights Definition, !- Name
  Watts/Area,                             !- Design Level Calculation Method
  ,                                       !- Lighting Level {W}
  14.5312790625581,                       !- Watts per Space Floor Area {W/m2}
  ;                                       !- Watts per Person {W/person}

OS:DesignSpecification:OutdoorAir,
  {69d02fbd-3b65-4514-8330-355612e92de3}, !- Handle
  189.1-2009 - Office - Elec/MechRoom - CZ1-3 Ventilation, !- Name
  Sum,                                    !- Outdoor Air Method
  0.009438948864,                         !- Outdoor Air Flow per Person {m3/s-person}
  ,                                       !- Outdoor Air Flow per Floor Area {m3/s-m2}
  ,                                       !- Outdoor Air Flow Rate {m3/s}
  ,                                       !- Outdoor Air Flow Air Changes per Hour {1/hr}
  ;                                       !- Outdoor Air Flow Rate Fraction Schedule Name

OS:ElectricEquipment:Definition,
  {bfdd4c3c-95fa-4c2d-8597-8431da48afda}, !- Handle
  189.1-2009 - Office - Elec/MechRoom - CZ1-3 Electric Equipment Definition, !- Name
  Watts/Area,                             !- Design Level Calculation Method
  ,                                       !- Design Level {W}
  2.90625581251162,                       !- Watts per Space Floor Area {W/m2}
  ;                                       !- Watts per Person {W/person}

OS:ThermostatSetpoint:DualSetpoint,
  {f8635cc8-deee-4e85-815b-ff7f42668c83}, !- Handle
  189.1-2009 - Office - Elec/MechRoom - CZ1-3 Thermostat, !- Name
  ,                                       !- Heating Setpoint Temperature Schedule Name
  ;                                       !- Cooling Setpoint Temperature Schedule Name

OS:Rendering:Color,
  {20b4e546-0bb5-45c4-b8f0-ba4246a49c01}, !- Handle
  Rendering Color 6,                      !- Name
  41,                                     !- Rendering Red Value
  31,                                     !- Rendering Green Value
  169;                                    !- Rendering Blue Value

OS:Lights:Definition,
  {a6747de8-6448-4e86-abde-d12da5652867}, !- Handle
  189.1-2009 - Office - IT_Room - CZ1-3 Lights Definition, !- Name
  Watts/Area,                             !- Design Level Calculation Method
  ,                                       !- Lighting Level {W}
  10.6562713125426,                       !- Watts per Space Floor Area {W/m2}
  ;                                       !- Watts per Person {W/person}

OS:DesignSpecification:OutdoorAir,
  {2f4b0680-26b1-4103-9f70-412db3ebdfbe}, !- Handle
  189.1-2009 - Office - IT_Room - CZ1-3 Ventilation, !- Name
  Sum,                                    !- Outdoor Air Method
  ,                                       !- Outdoor Air Flow per Person {m3/s-person}
  0.000254,                               !- Outdoor Air Flow per Floor Area {m3/s-m2}
  ,                                       !- Outdoor Air Flow Rate {m3/s}
  ,                                       !- Outdoor Air Flow Air Changes per Hour {1/hr}
  ;                                       !- Outdoor Air Flow Rate Fraction Schedule Name

OS:People:Definition,
  {ad090db3-4049-4090-9b2d-581dd03ae523}, !- Handle
  189.1-2009 - Office - IT_Room - CZ1-3 People Definition, !- Name
  People/Area,                            !- Number of People Calculation Method
  ,                                       !- Number of People {people}
  0.0538195520835486,                     !- People per Space Floor Area {person/m2}
  ,                                       !- Space Floor Area per Person {m2/person}
  0.3;                                    !- Fraction Radiant

OS:ElectricEquipment:Definition,
  {2d5fe187-829f-4492-a2a6-f83bc2f40cec}, !- Handle
  189.1-2009 - Office - IT_Room - CZ1-3 Electric Equipment Definition, !- Name
  Watts/Area,                             !- Design Level Calculation Method
  ,                                       !- Design Level {W}
  16.7917002500672,                       !- Watts per Space Floor Area {W/m2}
  ;                                       !- Watts per Person {W/person}

OS:ThermostatSetpoint:DualSetpoint,
  {7669758f-56e6-4440-9266-ef142961841f}, !- Handle
  189.1-2009 - Office - IT_Room - CZ1-3 Thermostat, !- Name
  ,                                       !- Heating Setpoint Temperature Schedule Name
  ;                                       !- Cooling Setpoint Temperature Schedule Name

OS:Rendering:Color,
  {0e5a132c-e7c3-4583-ad5a-cf0bf0fe2d03}, !- Handle
  Rendering Color 7,                      !- Name
  230,                                    !- Rendering Red Value
  157,                                    !- Rendering Green Value
  120;                                    !- Rendering Blue Value

OS:Lights:Definition,
  {aa532c04-012a-4860-ab4d-2c03c2c7fa04}, !- Handle
  189.1-2009 - Office - Lobby - CZ1-3 Lights Definition, !- Name
  Watts/Area,                             !- Design Level Calculation Method
  ,                                       !- Lighting Level {W}
  12.5937751875504,                       !- Watts per Space Floor Area {W/m2}
  ;                                       !- Watts per Person {W/person}

OS:DesignSpecification:OutdoorAir,
  {f648ca0a-523e-4cd1-9141-0b84b7a81954}, !- Handle
  189.1-2009 - Office - Lobby - CZ1-3 Ventilation, !- Name
  Sum,                                    !- Outdoor Air Method
  0.007079211648,                         !- Outdoor Air Flow per Person {m3/s-person}
  ,                                       !- Outdoor Air Flow per Floor Area {m3/s-m2}
  ,                                       !- Outdoor Air Flow Rate {m3/s}
  ,                                       !- Outdoor Air Flow Air Changes per Hour {1/hr}
  ;                                       !- Outdoor Air Flow Rate Fraction Schedule Name

OS:People:Definition,
  {91f1c38f-68a1-4305-b70a-a3e1fbc3f83a}, !- Handle
  189.1-2009 - Office - Lobby - CZ1-3 People Definition, !- Name
  People/Area,                            !- Number of People Calculation Method
  ,                                       !- Number of People {people}
  0.107639104167097,                      !- People per Space Floor Area {person/m2}
  ,                                       !- Space Floor Area per Person {m2/person}
  0.3;                                    !- Fraction Radiant

OS:ElectricEquipment:Definition,
  {d64c15fd-a2f8-4262-81e5-ab028c6506a1}, !- Handle
  189.1-2009 - Office - Lobby - CZ1-3 Electric Equipment Definition, !- Name
  Watts/Area,                             !- Design Level Calculation Method
  ,                                       !- Design Level {W}
  0.753473729169681,                      !- Watts per Space Floor Area {W/m2}
  ;                                       !- Watts per Person {W/person}

OS:ThermostatSetpoint:DualSetpoint,
  {f63de19d-9cf2-4162-bf2f-bdb7fddc1b7d}, !- Handle
  189.1-2009 - Office - Lobby - CZ1-3 Thermostat, !- Name
  ,                                       !- Heating Setpoint Temperature Schedule Name
  ;                                       !- Cooling Setpoint Temperature Schedule Name

OS:Rendering:Color,
  {e1b28003-ba15-4183-b5d9-585f72709eff}, !- Handle
  Rendering Color 8,                      !- Name
  120,                                    !- Rendering Red Value
  230,                                    !- Rendering Green Value
  199;                                    !- Rendering Blue Value

OS:Lights:Definition,
  {6c9d9254-9bb8-426a-af9b-3677316cf238}, !- Handle
  189.1-2009 - Office - OpenOffice - CZ1-3 Lights Definition, !- Name
  Watts/Area,                             !- Design Level Calculation Method
  ,                                       !- Lighting Level {W}
  10.6562713125426,                       !- Watts per Space Floor Area {W/m2}
  ;                                       !- Watts per Person {W/person}

OS:DesignSpecification:OutdoorAir,
  {f57d4115-03b8-4303-b205-42221bda4210}, !- Handle
  189.1-2009 - Office - OpenOffice - CZ1-3 Ventilation, !- Name
  Sum,                                    !- Outdoor Air Method
  0.009438948864,                         !- Outdoor Air Flow per Person {m3/s-person}
  ,                                       !- Outdoor Air Flow per Floor Area {m3/s-m2}
  ,                                       !- Outdoor Air Flow Rate {m3/s}
  ,                                       !- Outdoor Air Flow Air Changes per Hour {1/hr}
  ;                                       !- Outdoor Air Flow Rate Fraction Schedule Name

OS:People:Definition,
  {0e75bef1-0c07-4d0b-822d-d2df7c6f1111}, !- Handle
  189.1-2009 - Office - OpenOffice - CZ1-3 People Definition, !- Name
  People/Area,                            !- Number of People Calculation Method
  ,                                       !- Number of People {people}
  0.056510529687726,                      !- People per Space Floor Area {person/m2}
  ,                                       !- Space Floor Area per Person {m2/person}
  0.3;                                    !- Fraction Radiant

OS:ElectricEquipment:Definition,
  {6b2d3c23-bd59-4857-b849-eaf6b4a64e2f}, !- Handle
  189.1-2009 - Office - OpenOffice - CZ1-3 Electric Equipment Definition, !- Name
  Watts/Area,                             !- Design Level Calculation Method
  ,                                       !- Design Level {W}
  7.6423763958639,                        !- Watts per Space Floor Area {W/m2}
  ;                                       !- Watts per Person {W/person}

OS:ThermostatSetpoint:DualSetpoint,
  {b88ada7e-5b66-4c29-8b49-7f9040c59933}, !- Handle
  189.1-2009 - Office - OpenOffice - CZ1-3 Thermostat, !- Name
  ,                                       !- Heating Setpoint Temperature Schedule Name
  ;                                       !- Cooling Setpoint Temperature Schedule Name

OS:Building,
  {f73b031c-bb31-4fa0-ad96-2e9846c4d752}, !- Handle
  Building 1,                             !- Name
  ,                                       !- Building Sector Type
  ,                                       !- North Axis {deg}
  ,                                       !- Nominal Floor to Floor Height {m}
  {94a30545-2a09-4beb-a17f-ee57644d30dd}, !- Space Type Name
  {a636f640-2aca-4e29-9e70-1411925fc9c9}, !- Default Construction Set Name
  {92ffaaf7-2745-4994-a4b3-49442c2d56c3}, !- Default Schedule Set Name
  ,                                       !- Standards Number of Stories
  ,                                       !- Standards Number of Above Ground Stories
  ,                                       !- Standards Building Type
  ,                                       !- Standards Number of Living Units
  ,                                       !- Relocatable
  ;                                       !- Nominal Floor to Ceiling Height {m}

OS:Rendering:Color,
  {061734ce-19f4-4c27-a203-4b67b00d47ac}, !- Handle
  Rendering Color 9,                      !- Name
  41,                                     !- Rendering Red Value
  31,                                     !- Rendering Green Value
  169;                                    !- Rendering Blue Value

OS:Lights:Definition,
  {7a23b936-59e3-4314-9b52-3944ebdea4dc}, !- Handle
  189.1-2009 - Office - PrintRoom - CZ1-3 Lights Definition, !- Name
  Watts/Area,                             !- Design Level Calculation Method
  ,                                       !- Lighting Level {W}
  10.6562713125426,                       !- Watts per Space Floor Area {W/m2}
  ;                                       !- Watts per Person {W/person}

OS:DesignSpecification:OutdoorAir,
  {107e2dcf-081d-47d9-b8b0-921f5279392b}, !- Handle
  189.1-2009 - Office - PrintRoom - CZ1-3 Ventilation, !- Name
  Sum,                                    !- Outdoor Air Method
  ,                                       !- Outdoor Air Flow per Person {m3/s-person}
  0.000254,                               !- Outdoor Air Flow per Floor Area {m3/s-m2}
  ,                                       !- Outdoor Air Flow Rate {m3/s}
  ,                                       !- Outdoor Air Flow Air Changes per Hour {1/hr}
  ;                                       !- Outdoor Air Flow Rate Fraction Schedule Name

OS:People:Definition,
  {1e43b6dd-36da-4525-88ab-833e4310a5da}, !- Handle
  189.1-2009 - Office - PrintRoom - CZ1-3 People Definition, !- Name
  People/Area,                            !- Number of People Calculation Method
  ,                                       !- Number of People {people}
  0.107639104167097,                      !- People per Space Floor Area {person/m2}
  ,                                       !- Space Floor Area per Person {m2/person}
  0.3;                                    !- Fraction Radiant

OS:ElectricEquipment:Definition,
  {174d96d7-8543-478a-a5f4-76314ad6b67f}, !- Handle
  189.1-2009 - Office - PrintRoom - CZ1-3 Electric Equipment Definition, !- Name
  Watts/Area,                             !- Design Level Calculation Method
  ,                                       !- Design Level {W}
  30.0313100626201,                       !- Watts per Space Floor Area {W/m2}
  ;                                       !- Watts per Person {W/person}

OS:ThermostatSetpoint:DualSetpoint,
  {cb7fb571-b062-476f-8b81-9ee2aa7be729}, !- Handle
  189.1-2009 - Office - PrintRoom - CZ1-3 Thermostat, !- Name
  ,                                       !- Heating Setpoint Temperature Schedule Name
  ;                                       !- Cooling Setpoint Temperature Schedule Name

OS:Rendering:Color,
  {e64f5cb7-2c3d-45a9-84a6-367125f15aff}, !- Handle
  Rendering Color 10,                     !- Name
  169,                                    !- Rendering Red Value
  169,                                    !- Rendering Green Value
  31;                                     !- Rendering Blue Value

OS:Lights:Definition,
  {16c83f7f-a90c-43cd-99b3-fe5b6f146132}, !- Handle
  189.1-2009 - Office - Restroom - CZ1-3 Lights Definition, !- Name
  Watts/Area,                             !- Design Level Calculation Method
  ,                                       !- Lighting Level {W}
  8.71876743753488,                       !- Watts per Space Floor Area {W/m2}
  ;                                       !- Watts per Person {W/person}

OS:DesignSpecification:OutdoorAir,
  {65cf1445-a2aa-42ad-9ff8-c4b30ec4e53d}, !- Handle
  189.1-2009 - Office - Restroom - CZ1-3 Ventilation, !- Name
  Sum,                                    !- Outdoor Air Method
  ,                                       !- Outdoor Air Flow per Person {m3/s-person}
  0.0048768,                              !- Outdoor Air Flow per Floor Area {m3/s-m2}
  ,                                       !- Outdoor Air Flow Rate {m3/s}
  ,                                       !- Outdoor Air Flow Air Changes per Hour {1/hr}
  ;                                       !- Outdoor Air Flow Rate Fraction Schedule Name

OS:People:Definition,
  {134d060a-3bfc-40bd-bda0-b77a4720c9c2}, !- Handle
  189.1-2009 - Office - Restroom - CZ1-3 People Definition, !- Name
  People/Area,                            !- Number of People Calculation Method
  ,                                       !- Number of People {people}
  0.107639104167097,                      !- People per Space Floor Area {person/m2}
  ,                                       !- Space Floor Area per Person {m2/person}
  0.3;                                    !- Fraction Radiant

OS:ElectricEquipment:Definition,
  {6330081f-04c2-429c-adff-1624fc497cd6}, !- Handle
  189.1-2009 - Office - Restroom - CZ1-3 Electric Equipment Definition, !- Name
  Watts/Area,                             !- Design Level Calculation Method
  ,                                       !- Design Level {W}
  0.753473729169681,                      !- Watts per Space Floor Area {W/m2}
  ;                                       !- Watts per Person {W/person}

OS:ThermostatSetpoint:DualSetpoint,
  {36f7e68a-a20c-471b-b929-d4756cba022f}, !- Handle
  189.1-2009 - Office - Restroom - CZ1-3 Thermostat, !- Name
  ,                                       !- Heating Setpoint Temperature Schedule Name
  ;                                       !- Cooling Setpoint Temperature Schedule Name

OS:Rendering:Color,
  {d956b768-7de2-4589-97c3-e0178f40b773}, !- Handle
  Rendering Color 11,                     !- Name
  230,                                    !- Rendering Red Value
  157,                                    !- Rendering Green Value
  120;                                    !- Rendering Blue Value

OS:Lights:Definition,
  {b70563e1-7e2b-4c90-b280-61fcf401da4c}, !- Handle
  189.1-2009 - Office - Stair - CZ1-3 Lights Definition, !- Name
  Watts/Area,                             !- Design Level Calculation Method
  ,                                       !- Lighting Level {W}
  5.81251162502325,                       !- Watts per Space Floor Area {W/m2}
  ;                                       !- Watts per Person {W/person}
